405
Properties=species:S:1:pos:R:3:initial_magmoms:R:1:initial_charges:R:1 pbc="F F F"
Pd      12.53916000      12.53682000       6.87683000       0.83700000       0.42567800
Pd      14.45720000      10.64343000       6.87826000       0.93700000       0.43122000
Pd      16.38198000      12.54757000       6.88224000       0.85700000       0.41437500
Pd      12.54045000      16.37329000       6.88456000       0.85500000       0.41630800
Pd      14.45568000      14.45747000       6.86638000       0.83700000       0.35857400
Pd      16.37696000      16.37598000       6.88769000       0.88000000       0.40281600
Pd      18.27233000      14.46183000       6.89169000       0.93200000       0.43447100
Pd      14.45354000      18.27411000       6.89024000       0.93800000       0.42478800
Pd      14.45973000       6.91637000      10.68445000       0.91700000       0.43324700
Pd      14.45925000       8.75501000       8.78849000       0.91400000       0.41512100
Pd      10.61289000      10.60653000      10.63172000       0.89700000       0.42730700
Pd      14.45142000      10.60014000      10.62678000       0.79700000       0.37459300
Pd      18.30355000      10.61412000      10.63432000       0.89200000       0.44456200
Pd       6.89991000      14.47301000      10.67613000       0.92700000       0.42699800
Pd       8.75398000      14.45589000       8.77982000       0.92900000       0.41268500
Pd      14.44367000      14.44061000      10.64276000       0.72500000       0.39163200
Pd      18.31667000      14.45607000      10.62155000       0.78600000       0.37383900
Pd      20.16057000      14.46105000       8.77741000       0.93800000       0.41995300
Pd      22.04731000      14.46062000      10.66245000       0.93000000       0.42299900
Pd      10.61240000      18.30712000      10.63616000       0.90300000       0.39558000
Pd      14.44158000      18.31452000      10.63330000       0.78000000       0.38587300
Pd      14.45491000      20.16243000       8.79432000       0.93800000       0.40686400
Pd      18.29502000      18.30471000      10.64399000       0.89300000       0.41410600
Pd      14.45968000      22.02397000      10.68826000       0.92100000       0.44498400
Pd       8.76319000       8.76363000      14.48182000       0.92400000       0.42158300
Pd      12.55690000       6.90523000      12.55838000       0.85500000       0.41766500
Pd      14.45678000       6.88987000      14.45647000       0.83100000       0.33668200
Pd      16.36292000       6.90640000      12.55655000       0.85000000       0.41139600
Pd      18.26351000       6.89776000      14.46102000       0.92500000       0.40320400
Pd      20.15638000       8.75422000      14.47321000       0.93300000       0.42172700
Pd       6.89426000      10.65906000      14.50226000       0.92400000       0.43445400
Pd       6.89675000      12.55529000      12.57906000       0.87400000       0.39206900
Pd      14.43471000      10.61361000      14.47367000       0.76000000       0.34342500
Pd      16.36978000      10.60806000      12.56959000       0.83700000       0.35133000
Pd      18.31987000      10.59507000      14.47461000       0.78900000       0.40016500
Pd      22.05025000      10.64475000      14.48366000       0.92900000       0.42225400
Pd      22.05449000      12.54327000      12.55747000       0.86100000       0.42388400
Pd       6.90069000      14.47131000      14.49718000       0.81100000       0.35103800
Pd       6.90867000      16.37379000      12.57574000       0.88700000       0.39704000
Pd      10.60641000      16.35903000      12.56057000       0.82000000       0.38747600
Pd      14.42932000      14.44609000      14.47653000       0.72900000       0.41915000
Pd      18.30386000      14.46184000      14.47866000       0.72600000       0.39811200
Pd      22.07153000      14.46099000      14.48520000       0.82100000       0.40463200
Pd      22.05225000      16.37941000      12.56092000       0.87800000       0.41270600
Pd       6.90974000      18.27831000      14.48469000       0.93200000       0.40377500
Pd       8.72726000      20.15753000      14.47709000       0.92900000       0.41865400
Pd      10.62782000      20.18927000      12.53450000       0.86400000       0.38099300
Pd      14.46002000      18.28369000      14.48010000       0.72200000       0.38192100
Pd      16.36062000      18.30466000      12.57027000       0.83100000       0.28125400
Pd      18.30668000      18.31571000      14.48875000       0.79400000       0.40735300
Pd      20.15175000      20.15964000      14.48066000       0.92700000       0.42186500
Pd      22.05145000      18.27422000      14.48718000       0.93100000       0.41820400
Pd      12.53279000      22.02131000      12.57709000       0.85600000       0.42523000
Pd      14.45783000      22.03739000      14.47393000       0.83200000       0.33602100
Pd      16.37028000      22.02210000      12.57380000       0.86100000       0.39260300
Pd      18.26102000      22.02557000      14.46967000       0.92600000       0.42119600
Pd      12.53873000       6.88222000      16.39054000       0.85900000       0.41731300
Pd      14.45256000       6.87604000      18.30221000       0.93100000       0.44970900
Pd      16.37912000       6.88818000      16.39364000       0.86500000       0.42306700
Pd       6.90164000      12.55745000      16.40515000       0.86800000       0.39473000
Pd      10.60363000      10.61351000      18.33676000       0.91200000       0.39025300
Pd      10.60181000      12.52547000      16.40226000       0.78700000       0.35156100
Pd      14.42774000      10.59424000      18.35143000       0.78200000       0.41163300
Pd      18.31932000      10.60183000      18.33523000       0.89600000       0.49838100
Pd      22.05220000      12.54054000      16.40276000       0.81700000       0.43841300
Pd       6.90502000      14.46473000      18.30561000       0.93100000       0.41692900
Pd       6.90361000      16.37972000      16.40316000       0.91000000       0.40740700
Pd      10.59581000      16.38172000      16.40856000       0.74700000       0.37765300
Pd      14.45173000      14.46084000      18.32001000       0.73300000       0.41858800
Pd      18.31725000      14.46776000      18.34603000       0.79100000       0.41215900
Pd      22.05322000      14.45956000      18.29875000       0.93200000       0.44601200
Pd      22.05467000      16.38030000      16.40104000       0.82900000       0.43646300
Pd      10.60762000      18.31449000      18.32890000       0.91200000       0.35561100
Pd      10.62717000      20.19538000      16.41994000       0.87100000       0.37268900
Pd      14.43329000      18.31070000      18.33931000       0.78200000       0.36771400
Pd      18.30173000      18.30044000      18.32774000       0.89500000       0.43355600
Pd      12.52406000      22.02413000      16.38112000       0.82400000       0.40762800
Pd      14.43732000      22.04173000      18.28603000       0.92900000       0.42472500
Pd      16.37449000      22.03640000      16.38723000       0.87500000       0.41471800
Pd      14.44112000       8.75536000      20.19901000       0.96300000       0.39271800
Pd      10.61812000      12.51381000      20.22276000       0.87300000       0.36190100
Pd      12.51748000      12.55567000      22.05064000       0.83300000       0.41099500
Pd      14.43801000      10.64789000      22.06617000       0.92700000       0.47279200
Pd      16.37724000      12.54992000      22.05767000       0.86100000       0.41236200
Pd       8.71939000      14.45631000      20.18980000       0.92900000       0.40284700
Pd      10.62330000      16.40184000      20.22081000       0.87800000       0.35436300
Pd      12.52572000      16.36946000      22.03990000       0.85700000       0.39253200
Pd      14.45296000      14.47447000      22.06317000       0.83300000       0.36506100
Pd      16.36454000      16.38029000      22.04193000       0.84500000       0.39787300
Pd      18.26344000      14.48077000      22.04859000       0.93100000       0.46259900
Pd      14.45361000      18.25853000      22.03754000       0.92100000       0.44772700
Pd      14.44232000      20.14513000      20.17675000       0.95600000       0.42221000
Pd      10.64506000      14.44835000       6.88114000       0.93300000       0.42018500
Pd      10.60087000      14.44536000      10.62316000       0.79500000       0.39859900
Pd      10.65723000       6.89303000      14.45902000       0.92400000       0.41768100
Pd      10.60330000      10.60543000      14.48876000       0.79900000       0.36703700
Pd      12.53301000      10.60763000      12.57070000       0.77800000       0.33722700
Pd      10.61916000      14.44484000      14.48857000       0.81300000       0.36681400
Pd      16.36181000      16.36746000      18.33168000       0.85100000       0.37428200
Pd      20.15861000      14.46989000      20.19347000       0.92900000       0.39296200
Ag      10.61924000      12.56775000       8.72733000       0.36600000      -0.15072300
Ag      10.61888000      16.32487000       8.71368000       0.37600000      -0.11783800
Ag      10.65237000       8.77117000      12.59410000       0.40700000      -0.22851700
Ag      10.63266000      12.48064000      12.55864000       0.26100000      -0.17248700
Ag      12.48812000      14.45046000      12.55364000       0.23200000      -0.15031500
Ag      16.37092000      14.44910000      12.55754000       0.13100000      -0.24181500
Ag      10.61504000       8.69487000      16.35152000       0.38300000      -0.17511500
Ag      16.37235000      10.60660000      16.40830000       0.20900000      -0.11367200
Ag      12.48191000      14.45236000      16.38506000       0.21800000      -0.20695300
Ag      16.38084000      14.47519000      16.44662000       0.20500000      -0.16546700
Ag      16.36985000      18.27568000      16.45862000       0.25000000      -0.12806300
Ag      18.29925000      12.58865000      20.23230000       0.36100000      -0.15566200
Ag      18.25938000      16.34405000      20.16897000       0.41600000      -0.24975700
Ag      12.47370000       8.66979000       6.78607000       0.10900000      -0.13705700
Ag      14.46436000       6.85840000       6.86563000       0.13300000      -0.10579900
Ag      14.46501000       8.82193000       5.01228000       0.14900000      -0.13758600
Ag      16.44689000       8.67998000       6.79607000       0.10100000      -0.12711300
Ag       8.67311000      12.47847000       6.79331000       0.11000000      -0.14032700
Ag      10.54119000      10.54271000       6.75275000       0.12900000      -0.06884500
Ag      10.69867000      12.57553000       4.99904000       0.19200000      -0.11926800
Ag      12.57571000      10.70037000       4.99730000       0.19400000      -0.20913300
Ag      14.46049000      12.58703000       5.07647000       0.28900000      -0.19185700
Ag      16.34888000      10.70615000       5.00556000       0.19200000      -0.19911600
Ag      18.37845000      10.55277000       6.76417000       0.11800000      -0.05008200
Ag      18.22350000      12.58068000       5.00513000       0.18800000      -0.10309500
Ag      20.24376000      12.48534000       6.80654000       0.10400000      -0.13135900
Ag       6.85711000      14.46403000       6.86466000       0.13700000      -0.10909800
Ag       8.82320000      14.46650000       5.01146000       0.13600000      -0.13232400
Ag       8.67893000      16.44596000       6.79545000       0.11300000      -0.14104800
Ag      10.70367000      16.35498000       5.00510000       0.18700000      -0.20110800
Ag      12.58207000      14.46175000       5.07537000       0.29000000      -0.09383300
Ag      14.45939000      16.33731000       5.07931000       0.28500000      -0.18694700
Ag      16.33708000      14.46351000       5.07800000       0.28500000      -0.28778200
Ag      18.21915000      16.34865000       5.01083000       0.19000000      -0.18983100
Ag      20.09936000      14.46517000       5.02169000       0.14000000      -0.12359900
Ag      20.23914000      16.44160000       6.81105000       0.09300000      -0.13799200
Ag      22.06799000      14.46553000       6.86968000       0.13300000      -0.10586700
Ag      10.55315000      18.37947000       6.76946000       0.11900000      -0.04222800
Ag      12.58057000      18.22680000       5.01151000       0.18900000      -0.09978700
Ag      12.48183000      20.25129000       6.81053000       0.10800000      -0.11727900
Ag      14.46221000      20.10671000       5.02655000       0.15300000      -0.13343200
Ag      16.34324000      18.22046000       5.01396000       0.19400000      -0.08719600
Ag      16.44121000      20.24356000       6.80967000       0.11600000      -0.13455400
Ag      18.37353000      18.37386000       6.77135000       0.10800000      -0.04325100
Ag      14.46428000      22.07139000       6.87793000       0.13200000      -0.11660000
Ag      12.58470000       5.01464000      10.72124000       0.18100000      -0.17257500
Ag      14.46530000       5.01947000       8.84356000       0.13500000      -0.10089900
Ag      16.34335000       5.01753000      10.72093000       0.17600000      -0.17292000
Ag       8.64606000       8.64809000      10.55358000       0.09500000       0.09424000
Ag      10.56611000       6.78008000      10.57662000       0.11700000      -0.07995200
Ag      10.54257000       8.64438000       8.65236000       0.09200000      -0.05323500
Ag      12.49751000       6.81281000       8.70427000       0.13300000      -0.09741300
Ag      12.57990000       8.77348000      10.67701000       0.40800000      -0.24759400
Ag      16.42542000       6.82015000       8.70952000       0.13100000      -0.10043300
Ag      16.33471000       8.78035000      10.67989000       0.41300000      -0.23762400
Ag      18.35611000       6.78701000      10.57900000       0.11600000      -0.03042500
Ag      18.37642000       8.65482000       8.66102000       0.09400000      -0.04147600
Ag      20.27477000       8.65355000      10.55779000       0.09500000       0.10948800
Ag       5.01622000      12.58890000      10.72575000       0.18500000      -0.16655300
Ag       6.75199000      10.54766000      10.55458000       0.11000000      -0.07025300
Ag       6.79355000      12.48218000       8.68863000       0.10000000      -0.08106900
Ag       8.63173000      10.53389000       8.63974000       0.09100000       0.00766700
Ag       8.71147000      12.58371000      10.64574000       0.37700000      -0.13381300
Ag      12.58269000      10.60985000       8.70705000       0.36600000      -0.07720700
Ag      12.54183000      12.48160000      10.65413000       0.26500000      -0.22651900
Ag      14.45817000      12.54902000       8.66419000       0.31600000      -0.10334300
Ag      16.33472000      10.61824000       8.71582000       0.35400000      -0.11808700
Ag      16.36564000      12.48892000      10.66218000       0.24100000      -0.26553000
Ag      18.29072000      12.58200000       8.73906000       0.36200000      -0.23035500
Ag      20.28724000      10.54286000       8.64835000       0.08800000       0.02472200
Ag      20.20485000      12.58399000      10.64271000       0.36600000      -0.12906300
Ag      22.17171000      10.55110000      10.55824000       0.10500000      -0.06606000
Ag      22.13603000      12.48148000       8.69088000       0.10300000      -0.07262000
Ag      23.93163000      12.57996000      10.71521000       0.18700000      -0.19529200
Ag       5.01499000      14.46544000       8.84080000       0.14500000      -0.09528200
Ag       5.01911000      16.34139000      10.72413000       0.18800000      -0.16606800
Ag       6.81400000      16.43016000       8.70533000       0.13000000      -0.10105200
Ag       8.77690000      16.33178000      10.67379000       0.42600000      -0.22160700
Ag      12.54979000      14.45113000       8.66557000       0.33500000      -0.18626000
Ag      12.49303000      16.36453000      10.65580000       0.27600000      -0.23075700
Ag      14.45606000      16.36182000       8.66830000       0.34800000      -0.13530300
Ag      16.36151000      14.45817000       8.66727000       0.36400000      -0.20071200
Ag      16.36845000      16.41736000      10.66275000       0.23500000      -0.20901300
Ag      18.28735000      16.34041000       8.74255000       0.34700000      -0.23807700
Ag      20.19819000      16.33779000      10.64824000       0.35400000      -0.15817000
Ag      22.13135000      16.44136000       8.69635000       0.09300000      -0.07491600
Ag      23.91802000      14.46375000       8.83584000       0.13700000      -0.10716400
Ag      23.92953000      16.34447000      10.71833000       0.18600000      -0.18975800
Ag       6.78515000      18.35884000      10.58068000       0.09200000      -0.06732800
Ag       8.65619000      18.37284000       8.66391000       0.10400000       0.01069800
Ag       8.67509000      20.26213000      10.57953000       0.11900000       0.07459800
Ag      10.54559000      20.28381000       8.66052000       0.08700000      -0.06744500
Ag      12.57890000      18.29553000       8.73776000       0.38500000      -0.19026800
Ag      12.55628000      20.20079000      10.67140000       0.38500000      -0.18908000
Ag      16.32490000      18.29800000       8.72526000       0.35800000      -0.10150200
Ag      16.33483000      20.14599000      10.67925000       0.42700000      -0.25255500
Ag      18.36667000      20.26394000       8.67567000       0.09900000      -0.02551000
Ag      20.28087000      18.37804000       8.65791000       0.09000000       0.03252900
Ag      20.26917000      20.26466000      10.56987000       0.09600000       0.11485500
Ag      22.16946000      18.37135000      10.56309000       0.10400000      -0.06212000
Ag      10.57155000      22.13308000      10.60987000       0.13100000      -0.11571500
Ag      12.49095000      22.12547000       8.71258000       0.10600000      -0.05790500
Ag      12.58293000      23.92392000      10.73218000       0.16900000      -0.16570100
Ag      14.46278000      23.91205000       8.85331000       0.13700000      -0.07531800
Ag      16.42774000      22.11517000       8.71579000       0.13700000      -0.08918700
Ag      16.34453000      23.91210000      10.73198000       0.17800000      -0.16689900
Ag      18.35553000      22.13873000      10.58783000       0.11300000      -0.10080400
Ag       8.82801000       5.01122000      14.47512000       0.13500000      -0.11810200
Ag      10.71115000       5.01166000      12.59360000       0.18900000      -0.08341300
Ag      12.59020000       5.08828000      14.47376000       0.28600000      -0.18690700
Ag      14.46325000       5.08956000      12.59971000       0.28700000      -0.28919600
Ag      16.33425000       5.09387000      14.47448000       0.28100000      -0.18674200
Ag      18.21358000       5.01370000      12.59292000       0.18600000      -0.07797000
Ag      20.09152000       5.01615000      14.47421000       0.14300000      -0.10224800
Ag       5.01107000       8.83243000      14.47867000       0.14000000      -0.11517600
Ag       6.85607000       6.85889000      14.47623000       0.13000000      -0.11736900
Ag       6.78946000       8.68223000      12.49201000       0.08200000      -0.07230400
Ag       8.68941000       6.80764000      12.50404000       0.12200000      -0.08991700
Ag      12.55267000       8.69835000      14.46092000       0.36900000      -0.14290200
Ag      14.45482000       8.75222000      12.57712000       0.39100000      -0.28411600
Ag      16.35684000       8.69265000      14.45705000       0.37400000      -0.24028500
Ag      18.26030000       8.77366000      12.59416000       0.41900000      -0.21234800
Ag      20.23379000       6.81104000      12.50419000       0.12800000      -0.14070000
Ag      22.06592000       6.85967000      14.47667000       0.13500000      -0.11036000
Ag      22.13932000       8.68028000      12.48897000       0.09600000      -0.08410500
Ag      23.91721000       8.82454000      14.47859000       0.13900000      -0.13522600
Ag       5.01340000      10.71813000      12.60096000       0.18300000      -0.10152100
Ag       5.09630000      12.59785000      14.48882000       0.28700000      -0.14765100
Ag       8.69859000      10.62208000      12.61204000       0.34700000      -0.11803300
Ag       8.70173000      12.56064000      14.50817000       0.37100000      -0.25078400
Ag      12.49465000      12.49532000      14.48012000       0.23600000      -0.15299900
Ag      14.44677000      12.43781000      12.56286000       0.24300000      -0.22821800
Ag      16.37480000      12.48630000      14.45520000       0.19900000      -0.29211300
Ag      18.28015000      12.49883000      12.56289000       0.23100000      -0.14128300
Ag      20.21782000      10.62038000      12.60258000       0.34500000      -0.11440900
Ag      20.27448000      12.55457000      14.47781000       0.32200000      -0.19392800
Ag      23.93038000      10.70582000      12.59222000       0.19000000      -0.09470400
Ag      23.85264000      12.58458000      14.48203000       0.27900000      -0.19376500
Ag       5.09947000      14.46725000      12.61384000       0.28500000      -0.27974500
Ag       5.09930000      16.33967000      14.48673000       0.28700000      -0.18551000
Ag       8.70238000      14.47642000      12.58922000       0.39900000      -0.25425000
Ag       8.70950000      16.36435000      14.49292000       0.37900000      -0.23248800
Ag      12.48237000      16.35231000      14.47697000       0.23600000      -0.27429800
Ag      14.46208000      16.40304000      12.55912000       0.19100000      -0.20163600
Ag      16.37471000      16.41731000      14.47578000       0.17300000      -0.11488800
Ag      18.27385000      16.41866000      12.57304000       0.22900000      -0.15917000
Ag      20.27722000      14.46144000      12.57492000       0.37100000      -0.22640600
Ag      20.27254000      16.36914000      14.48084000       0.34100000      -0.17453800
Ag      23.85539000      14.46143000      12.60253000       0.27700000      -0.29182100
Ag      23.85672000      16.33706000      14.48176000       0.28500000      -0.19792700
Ag       5.01734000      18.20943000      12.59888000       0.18700000      -0.06977500
Ag       5.00945000      20.09105000      14.47561000       0.15900000      -0.10347200
Ag       6.80023000      20.23807000      12.50101000       0.12000000      -0.04099600
Ag       8.76256000      18.29275000      12.56243000       0.39800000      -0.21353200
Ag      10.59368000      18.35356000      14.48462000       0.32400000      -0.23576100
Ag      12.48193000      18.28251000      12.53798000       0.27100000      -0.28092300
Ag      12.58713000      20.21005000      14.47814000       0.33400000      -0.23768900
Ag      14.47938000      20.20952000      12.57118000       0.40400000      -0.22531500
Ag      16.36197000      20.21828000      14.46719000       0.39500000      -0.21045600
Ag      18.25787000      20.14331000      12.60172000       0.41400000      -0.18366900
Ag      20.21137000      18.29678000      12.60786000       0.34800000      -0.09922500
Ag      22.13464000      20.23775000      12.49756000       0.09500000      -0.07635400
Ag      23.93020000      18.21656000      12.59381000       0.19300000      -0.09014100
Ag      23.92099000      20.09769000      14.47841000       0.13800000      -0.12329700
Ag       6.85067000      22.07013000      14.47542000       0.15600000      -0.09099400
Ag       8.69167000      22.10710000      12.49781000       0.13500000      -0.07569900
Ag       8.79330000      23.96356000      14.47824000       0.13800000      -0.13764000
Ag      10.63235000      21.95476000      14.47756000       0.42600000      -0.14224900
Ag      10.69673000      23.96728000      12.57606000       0.17700000      -0.06081000
Ag      12.60407000      23.88325000      14.47975000       0.25700000      -0.15064500
Ag      14.46300000      23.83933000      12.60661000       0.27200000      -0.28092500
Ag      16.33329000      23.84127000      14.47955000       0.27200000      -0.19044700
Ag      18.21683000      23.91164000      12.59985000       0.18100000      -0.07417000
Ag      20.23011000      22.10729000      12.51549000       0.13300000      -0.09878800
Ag      20.09733000      23.90943000      14.47700000       0.14600000      -0.11669900
Ag      22.07248000      22.06484000      14.47754000       0.13400000      -0.11182200
Ag      10.70725000       5.00395000      16.36023000       0.18300000      -0.20444200
Ag      12.57929000       5.00171000      18.23723000       0.19500000      -0.11888900
Ag      14.46261000       5.09080000      16.34812000       0.27700000      -0.08533400
Ag      16.34150000       5.00219000      18.23656000       0.18900000      -0.10559400
Ag      18.21397000       5.00718000      16.35925000       0.18400000      -0.19559300
Ag       6.80169000       8.68725000      16.45173000       0.12400000      -0.12785500
Ag       8.67427000       6.78412000      16.46078000       0.11300000      -0.07915200
Ag       8.63857000       8.63981000      18.40175000       0.10800000      -0.06420700
Ag      10.54102000       6.74934000      18.40037000       0.11700000      -0.09760700
Ag      12.57211000       8.70925000      18.32710000       0.38600000      -0.13339800
Ag      14.45067000       8.64687000      16.38428000       0.35700000      -0.21218100
Ag      16.33029000       8.70601000      18.32742000       0.34300000      -0.18796300
Ag      18.37784000       6.75045000      18.39611000       0.10500000      -0.12409000
Ag      18.29580000       8.71209000      16.35451000       0.34300000      -0.13865600
Ag      20.24165000       6.79396000      16.46043000       0.09000000      -0.06329400
Ag      20.28719000       8.63502000      18.40748000       0.09600000      -0.06993800
Ag      22.13901000       8.67286000      16.46543000       0.09500000      -0.14146400
Ag       5.00977000      10.71058000      16.36304000       0.18800000      -0.20837000
Ag       5.00609000      12.58288000      18.23583000       0.18600000      -0.11423000
Ag       6.76950000      10.56031000      18.38636000       0.09400000      -0.10714400
Ag       8.76386000      10.64816000      16.36943000       0.41700000      -0.25992700
Ag       8.75036000      12.54079000      18.32723000       0.39400000      -0.09478800
Ag      12.48326000      10.63017000      16.41168000       0.28800000      -0.20899400
Ag      12.47917000      12.51326000      18.32190000       0.29200000      -0.16246600
Ag      14.44447000      12.53210000      16.39241000       0.18200000      -0.17242200
Ag      16.36970000      12.53160000      18.33586000       0.21500000      -0.04377200
Ag      18.30328000      12.54526000      16.40166000       0.21400000      -0.17514700
Ag      20.21308000      10.61788000      16.36102000       0.34600000      -0.15644100
Ag      20.21611000      12.58303000      18.32670000       0.35300000      -0.10285300
Ag      22.17448000      10.54395000      18.39688000       0.12100000      -0.10537600
Ag      23.93067000      10.70090000      16.36678000       0.18100000      -0.21886300
Ag      23.93119000      12.57592000      18.24288000       0.18800000      -0.13224600
Ag       5.09604000      14.46831000      16.36281000       0.28600000      -0.09222100
Ag       5.00400000      16.34473000      18.23638000       0.18900000      -0.11459800
Ag       8.70806000      14.46659000      16.39242000       0.37100000      -0.25414200
Ag       8.75516000      16.38367000      18.33314000       0.40200000      -0.09262600
Ag      10.58573000      14.45643000      18.38373000       0.32300000      -0.15261000
Ag      12.48084000      16.39295000      18.31285000       0.26300000      -0.19656500
Ag      14.47267000      16.37320000      16.43890000       0.22500000      -0.26846500
Ag      18.27903000      16.37789000      16.44362000       0.25000000      -0.23945000
Ag      20.27211000      14.46455000      16.38844000       0.31200000      -0.16193100
Ag      20.21820000      16.33512000      18.32286000       0.35600000      -0.11757400
Ag      23.85543000      14.46097000      16.35991000       0.28600000      -0.10167300
Ag      23.93441000      16.34861000      18.24076000       0.18600000      -0.12961400
Ag       5.00682000      18.21605000      16.36076000       0.19100000      -0.20814300
Ag       6.76659000      18.36837000      18.38499000       0.07000000      -0.11510000
Ag       6.79030000      20.24154000      16.45549000       0.12500000      -0.05857600
Ag       8.75824000      18.30890000      16.40518000       0.40100000      -0.19571700
Ag       8.65837000      20.27078000      18.38097000       0.12500000      -0.07650700
Ag      12.49224000      18.28500000      16.42302000       0.28500000      -0.19353000
Ag      12.54448000      20.20186000      18.29699000       0.39700000      -0.19340900
Ag      14.46355000      20.25187000      16.39606000       0.36200000      -0.15645100
Ag      16.32545000      20.22066000      18.32434000       0.37100000      -0.11054100
Ag      18.28763000      20.19604000      16.35885000       0.35500000      -0.19238400
Ag      20.20524000      18.29733000      16.36303000       0.36100000      -0.12510600
Ag      20.28724000      20.28558000      18.39682000       0.08900000      -0.05334700
Ag      22.17432000      18.37753000      18.39071000       0.11500000      -0.11619600
Ag      22.13712000      20.24589000      16.45840000       0.09700000      -0.06362800
Ag      23.93471000      18.22146000      16.36540000       0.18200000      -0.20686100
Ag       8.68639000      22.10703000      16.45469000       0.14200000      -0.15314500
Ag      10.56024000      22.13268000      18.34867000       0.14500000      -0.05604500
Ag      10.69146000      23.96735000      16.38497000       0.16700000      -0.16370300
Ag      12.57423000      23.92384000      18.23021000       0.17500000      -0.13087000
Ag      14.46013000      23.84002000      16.35204000       0.27100000      -0.09592700
Ag      16.34193000      23.92157000      18.22915000       0.18700000      -0.09642900
Ag      18.37624000      22.16878000      18.38653000       0.10900000      -0.09842700
Ag      18.21714000      23.91879000      16.35703000       0.17700000      -0.19782200
Ag      20.23986000      22.12492000      16.45291000       0.09600000      -0.13605900
Ag      14.45932000       5.00821000      20.12408000       0.15000000      -0.16821200
Ag      10.52638000       8.63327000      20.31142000       0.09700000       0.00417900
Ag      12.46725000       6.78304000      20.27423000       0.10700000      -0.11578300
Ag      12.47150000       8.68128000      22.15630000       0.10700000      -0.06712200
Ag      14.45870000       6.85773000      22.08932000       0.13900000      -0.10643300
Ag      16.44570000       6.78785000      20.26711000       0.09800000      -0.09734400
Ag      16.44644000       8.67725000      22.15664000       0.08500000      -0.08588800
Ag      18.38740000       8.63749000      20.30346000       0.10300000       0.00618300
Ag       6.78606000      12.48136000      20.26593000       0.12700000      -0.08580100
Ag       8.65961000      10.55564000      20.28957000       0.12200000       0.00933800
Ag       8.68073000      12.47913000      22.13162000       0.14500000      -0.02022600
Ag      10.55550000      10.58462000      22.16071000       0.14100000      -0.09858200
Ag      12.53979000      10.63961000      20.23359000       0.38300000      -0.10571400
Ag      14.45731000      12.54312000      20.29256000       0.37700000      -0.19677900
Ag      16.33368000      10.61464000      20.23489000       0.35200000      -0.10892700
Ag      18.37865000      10.54577000      22.18955000       0.11200000       0.03994000
Ag      20.28558000      10.53485000      20.30254000       0.10200000      -0.07548600
Ag      20.24527000      12.48183000      22.14810000       0.10300000      -0.09287200
Ag      22.13958000      12.47687000      20.26832000       0.10300000      -0.10275800
Ag       5.00231000      14.46241000      20.11522000       0.15800000      -0.15202800
Ag       6.84439000      14.46346000      22.09198000       0.16100000      -0.12050600
Ag       6.78572000      16.44216000      20.26200000       0.12500000      -0.02360400
Ag       8.68069000      16.44347000      22.12850000       0.13700000      -0.07899800
Ag      10.62524000      14.46216000      21.98125000       0.42900000      -0.16858900
Ag      12.58254000      14.46108000      20.24164000       0.34800000      -0.21735300
Ag      14.47441000      16.37446000      20.23366000       0.40500000      -0.11686000
Ag      16.36056000      14.48028000      20.25401000       0.38600000      -0.26836400
Ag      20.23424000      16.43480000      22.13272000       0.13100000      -0.08694700
Ag      22.07166000      14.46355000      22.08695000       0.14100000      -0.10475300
Ag      22.13969000      16.44624000      20.26407000       0.10800000      -0.09772300
Ag      23.92191000      14.46312000      20.12131000       0.14100000      -0.16647300
Ag       8.65814000      18.36542000      20.28682000       0.12500000       0.06045500
Ag      10.55830000      18.33553000      22.14865000       0.13800000      -0.10610800
Ag      10.53166000      20.27853000      20.29360000       0.09100000      -0.05807600
Ag      12.54631000      18.27082000      20.21514000       0.37900000      -0.16545800
Ag      12.47849000      20.23192000      22.13269000       0.10200000      -0.07322700
Ag      16.33348000      18.26312000      20.16601000       0.43200000      -0.18763300
Ag      16.42434000      20.22920000      22.12603000       0.14000000      -0.06365200
Ag      18.35587000      18.35907000      22.15733000       0.11800000      -0.01410900
Ag      18.36677000      20.26781000      20.27841000       0.10000000       0.09802300
Ag      20.27133000      18.37448000      20.28339000       0.09800000      -0.00257200
Ag      12.47478000      22.12585000      20.25143000       0.10700000      -0.13300000
Ag      14.45642000      22.06367000      22.07524000       0.13200000      -0.11048200
Ag      14.45374000      23.91260000      20.11092000       0.14100000      -0.14389500
Ag      16.44086000      22.13776000      20.25615000       0.10800000      -0.11892600
Ag      14.45644000       8.82762000      23.93325000       0.14300000      -0.12337400
Ag      10.68907000      12.55830000      23.98895000       0.17700000      -0.08561900
Ag      12.57232000      10.70974000      23.94986000       0.18000000      -0.16752600
Ag      14.45857000      12.59085000      23.85783000       0.26900000      -0.13398900
Ag      16.34138000      10.71055000      23.93760000       0.18300000      -0.10435000
Ag      18.21540000      12.58497000      23.93340000       0.18200000      -0.19687600
Ag       8.78701000      14.46528000      23.98371000       0.14400000      -0.09736700
Ag      10.69023000      16.37261000      23.98474000       0.17400000      -0.10569800
Ag      12.60093000      14.46681000      23.90653000       0.25800000      -0.18631100
Ag      14.45845000      16.34378000      23.85845000       0.27300000      -0.13409800
Ag      16.33099000      14.46765000      23.85759000       0.27200000      -0.29889600
Ag      18.21434000      16.34789000      23.92972000       0.18200000      -0.19714000
Ag      20.09422000      14.46574000      23.92734000       0.15700000      -0.11143200
Ag      12.57454000      18.21675000      23.93456000       0.16900000      -0.16755800
Ag      14.45399000      20.09353000      23.91722000       0.13700000      -0.11339600
Ag      16.34142000      18.21826000      23.92873000       0.17800000      -0.09703400
