405
Properties=species:S:1:pos:R:3 pbc="F F F"
Pd 11.94476355466328 11.94474129822546 5.85397119884356
Pd 14.00001263105661 9.90181175403067 5.84792654874422
Pd 16.05526865009502 11.94473036288152 5.85397356180705
Pd 9.90182219990625 13.99999544228532 5.84791503457670
Pd 11.94477255923914 16.05523529725946 5.85399727234025
Pd 14.00003079797826 13.99998236888075 5.87366825682907
Pd 16.05526917257195 16.05525710231879 5.85397276707967
Pd 18.09818299527251 13.99999295327208 5.84792778968097
Pd 14.00000789936137 18.09819206579468 5.84790785813948
Pd 11.94418959768411 7.87537214539756 9.91783438554047
Pd 14.00002014726944 5.81103267093751 9.92311309435221
Pd 16.05585670599476 7.87535116612419 9.91780877271460
Pd 7.87534616479388 11.94415261379266 9.91782697503615
Pd 9.90453524968961 9.90452837669195 9.91626535215687
Pd 11.96425393864626 11.96421902663857 9.91636414009168
Pd 14.00004827504953 9.90918457400608 9.93143464460738
Pd 16.03580111444647 11.96421369290391 9.91633824260058
Pd 18.09547450262657 9.90451042862998 9.91623605062160
Pd 20.12461120297488 11.94415592143370 9.91780995083183
Pd 5.81100339544507 13.99999867247818 9.92308337761105
Pd 7.87530721462983 16.05584025001563 9.91783363562988
Pd 9.90917687957845 13.99997556508996 9.93146856305384
Pd 11.96425545619645 16.03577031659913 9.91641519143470
Pd 14.00002929545022 13.99999998070883 9.89653484833657
Pd 16.03579878099830 16.03577070334331 9.91635655373640
Pd 18.09081015502498 13.99998162364242 9.93142758822704
Pd 20.12461917936192 16.05582378667172 9.91781865784419
Pd 22.18892614423494 13.99998845461418 9.92309102998678
Pd 9.90451604519375 18.09549370286929 9.91625922907139
Pd 11.94418000579869 20.12469234130073 9.91783501428072
Pd 14.00005474496873 18.09084386287273 9.93146103624674
Pd 16.05585634373538 20.12466963313362 9.91780824174139
Pd 18.09547155664303 18.09548616816357 9.91624924689154
Pd 14.00002420532621 22.18900180863437 9.92310162155465
Pd 7.88760743920877 7.88763235768522 13.99999412649924
Pd 9.93186152155277 5.82071177079713 13.99999311267403
Pd 11.97020466552894 7.89540381354082 13.99999154412056
Pd 14.00004443890601 5.82458912087006 13.99999116700438
Pd 16.02988645217402 7.89538622713531 13.99999640870038
Pd 18.06816093532426 5.82068759269425 13.99997488487337
Pd 20.11228771365877 7.88765373568457 13.99999010393291
Pd 5.82061407822657 9.93172491021987 13.99999277306181
Pd 7.89534257809023 11.97011738486828 13.99999149838806
Pd 9.92381156241883 9.92376729776505 13.99998939477796
Pd 11.97215844099604 11.97205567767491 13.99998408894068
Pd 14.00007325040776 9.93020047817155 13.99998947882345
Pd 16.02794639574762 11.97208016820364 14.00000132859362
Pd 18.07621086752996 9.92377543842337 14.00000061262778
Pd 20.10458116552853 11.97011543377532 14.00000473823082
Pd 22.17924221511948 9.93182697392458 13.99999070479347
Pd 5.82450037040889 13.99998993567086 13.99999520102543
Pd 7.89529147075196 16.02988862762943 13.99999971101441
Pd 9.93018182400174 13.99998178226384 13.99999132326428
Pd 11.97213088938779 16.02792610947606 14.00000411758357
Pd 14.00006652081489 13.99998076773982 14.00000326529306
Pd 16.02796699241648 16.02788454507058 14.00002184371071
Pd 18.06979227697695 13.99996438875636 14.00001170238312
Pd 20.10457304882713 16.02983036079663 14.00000856653204
Pd 22.17533061042613 13.99997059087251 14.00000036026904
Pd 5.82057486830013 18.06831047112578 13.99998901590419
Pd 7.88750593779889 20.11249388132688 13.99998181625657
Pd 9.92374032856209 18.07628578539766 14.00000572566592
Pd 11.97013921548489 20.10471876591230 13.99999913021153
Pd 14.00005904207549 18.06985032464731 14.00001350743736
Pd 16.02988995271601 20.10466061924127 14.00001201303988
Pd 18.07621985144829 18.07621048662269 14.00002343433427
Pd 20.11231234296655 20.11235583608873 14.00001108512362
Pd 22.17926796654433 18.06810863567907 14.00000371099280
Pd 9.93169720454102 22.17940342616470 13.99999078077822
Pd 14.00002326273853 22.17550119808342 13.99999292451231
Pd 18.06822358492603 22.17935857904470 14.00000235986079
Pd 11.94419561647088 7.87535258596335 18.08214589703235
Pd 14.00002110158877 5.81103031460075 18.07687455501135
Pd 16.05585806293104 7.87533819464473 18.08218658845536
Pd 7.87533099331734 11.94415220935346 18.08215796922381
Pd 9.90453310712191 9.90452263919905 18.08370171547876
Pd 11.96426384296701 11.96421433450677 18.08362014494652
Pd 14.00005915077470 9.90916467930006 18.06854637625487
Pd 16.03581497796769 11.96420529468624 18.08367618616609
Pd 18.09548308270745 9.90450600803095 18.08377928775607
Pd 20.12463463619880 11.94414787666970 18.08221710415649
Pd 5.81098172521715 13.99999328336511 18.07688043955153
Pd 7.87529498479603 16.05583598272302 18.08216389498386
Pd 9.90917066280684 13.99996964794410 18.06851503667860
Pd 11.96425822615553 16.03576787754670 18.08359355001189
Pd 14.00003644031426 13.99999110153321 18.10349329134596
Pd 16.03581609065935 16.03577468082325 18.08367811453587
Pd 18.09083446952805 13.99997524945656 18.06860129058100
Pd 20.12463901680317 16.05582732581782 18.08221910061253
Pd 22.18894750801373 13.99998673656514 18.07693018692678
Pd 9.90450643888921 18.09550689005609 18.08373746758505
Pd 11.94416160064630 20.12471329742634 18.08217291245547
Pd 14.00005608353187 18.09086176036824 18.06855360180838
Pd 16.05586246388198 20.12468726278433 18.08220579481813
Pd 18.09549659781630 18.09549941417432 18.08378472766164
Pd 13.99998850368183 22.18901789392419 18.07690509366588
Pd 11.94475666223156 11.94472896387943 22.14600056765750
Pd 14.00001114773967 9.90178857372702 22.15206173724908
Pd 16.05528648803391 11.94471218439119 22.14605016360542
Pd 11.94477141778858 16.05523282612320 22.14598224819849
Pd 14.00004438313500 13.99998081650939 22.12632614157222
Pd 16.05527150139786 16.05528809611132 22.14598553836226
Pd 18.09819914355334 13.99998819565332 22.15213163991265
Pd 14.00001274151691 18.09819560108890 22.15208591179046
Pd 9.90181004172526 14.00000194161062 22.15206718759467
Ag 14.00001574343454 5.85128665654899 5.85363747759565
Ag 14.00002097236777 7.92402494254314 3.87736433104932
Ag 16.06720693469405 7.85307147077517 5.82961666364975
Ag 7.85308846219557 11.93281138682176 5.82956772122096
Ag 9.89395635433065 9.89393338692838 5.82546081563216
Ag 9.95022073516558 11.98126558830550 3.85996598803851
Ag 11.98129368449043 9.95019106708919 3.85997456255177
Ag 14.00003520519092 11.97922426065238 3.87890376878023
Ag 16.01875553418338 9.95016746445752 3.86000384958439
Ag 18.10608488329962 9.89390584694563 5.82546350080986
Ag 18.04981181845092 11.98123930742110 3.86001061608414
Ag 20.14690266696901 11.93279736339425 5.82960707096934
Ag 5.85119552446049 13.99997787044185 5.85352119158895
Ag 7.92401607423535 13.99998876217029 3.87732813103948
Ag 7.85309663724663 16.06714446102697 5.82962285665269
Ag 9.95020792623938 16.01872213402116 3.85999686258927
Ag 11.97928075041055 13.99998347402512 3.87890195441048
Ag 14.00003483712796 16.02074375096904 3.87891170630849
Ag 16.02078397787155 13.99998355695923 3.87891354309857
Ag 18.04981464945901 16.01872528202822 3.85999653901535
Ag 20.07593672655985 13.99997762888431 3.87733906663755
Ag 20.14690958537860 16.06716970783584 5.82958532461006
Ag 22.14870024518708 13.99997752994919 5.85364793151397
Ag 9.89398568991144 18.10601490046668 5.82554249167295
Ag 11.98127427663340 18.04978808647069 3.85998653498895
Ag 11.93285519581094 20.14689288370209 5.82962005074590
Ag 14.00001625873957 20.07595931885930 3.87729416137025
Ag 16.01875356959315 18.04980727651760 3.85998215037915
Ag 16.06717758069690 20.14690964596387 5.82960261041663
Ag 18.10608587325526 18.10607133652800 5.82543034572293
Ag 14.00001404432098 22.14876054519850 5.85349014892120
Ag 11.97392965493045 3.81928797029474 9.92674866516313
Ag 13.99998011567241 3.87046008348758 7.90666246773704
Ag 16.02608968732924 3.81928224285533 9.92669409560851
Ag 7.86430457096978 7.86428886354576 9.89805751509854
Ag 9.89715257269578 5.81752320107708 9.89182656826990
Ag 9.90723009457713 7.86988426067069 7.88604578431844
Ag 11.93956058280773 5.83976826759581 7.88070819889774
Ag 14.00003307915291 7.88017609983022 7.94196430660663
Ag 16.06046474556955 5.83972684255131 7.88068351522380
Ag 18.10287490059751 5.81748244126222 9.89182441682501
Ag 18.09281610898247 7.86984319544326 7.88603578855280
Ag 20.13569295738460 7.86426745483406 9.89804575066481
Ag 3.81927435656877 11.97388476803936 9.92668501051441
Ag 5.81749087710824 9.89708354597239 9.89180143396733
Ag 5.83974641567521 11.93951584593735 7.88063233470505
Ag 7.86989350042612 9.90718493973788 7.88602788514840
Ag 9.92226756707774 11.96026384701004 7.91822699512193
Ag 11.96030589394398 9.92225340396502 7.91824760800413
Ag 14.00004189976246 11.95503648605656 7.88821207606623
Ag 16.03975985514809 9.92223572801530 7.91824038202307
Ag 18.07775126186936 11.96024992296025 7.91824624109726
Ag 20.13012362643082 9.90718024858023 7.88604259323768
Ag 22.18244300427418 9.89712237129561 9.89184570632747
Ag 22.16022716707588 11.93953991088140 7.88068989076611
Ag 24.18066571214975 11.97388259959931 9.92672146163412
Ag 3.87046472591719 13.99997638037907 7.90657527610789
Ag 3.81926242306283 16.02608893119374 9.92667349322990
Ag 5.83970722643220 16.06046618020276 7.88061352988755
Ag 7.88016317578654 13.99997617971876 7.94193186386649
Ag 9.92226999246838 16.03969334925732 7.91826495061563
Ag 11.95508718381081 13.99997666157661 7.88820960879963
Ag 14.00004484891001 16.04493820046296 7.88820231732734
Ag 16.04497320635511 13.99998116093477 7.88820067924373
Ag 18.07775467791846 16.03971631489138 7.91824189721612
Ag 20.11979838966903 13.99997927474146 7.94195074831657
Ag 22.16023600494621 16.06041662577018 7.88068098095518
Ag 24.12956371331456 13.99997169448496 7.90671042242371
Ag 24.18067559943773 16.02607041307170 9.92671949191716
Ag 5.81743955484625 18.10291047225272 9.89178919980949
Ag 7.86984390205175 18.09281874224875 7.88601491567582
Ag 7.86424682499219 20.13575160246995 9.89805029578160
Ag 9.90718446863754 20.13015192469997 7.88602874119072
Ag 11.96031909930034 18.07773874348020 7.91826605391228
Ag 14.00003088383136 20.11985594998212 7.94193185450469
Ag 16.03975702669567 18.07774461883340 7.91823052135635
Ag 18.09282162483422 20.13012958458427 7.88599618307575
Ag 20.13012471705301 18.09277978248392 7.88601443849713
Ag 20.13570421241358 20.13569870600216 9.89803375741213
Ag 22.18246062245357 18.10284053172358 9.89183162828370
Ag 9.89710669839728 22.18255800916187 9.89180335194550
Ag 11.93954538514538 22.16027436454589 7.88063766275294
Ag 11.97392748428127 24.18075700268233 9.92666571943902
Ag 14.00001100191052 24.12948769351610 7.90655407696463
Ag 16.06049500383074 22.16028251675494 7.88060548343627
Ag 16.02612128775401 24.18073776696993 9.92666085886081
Ag 18.10291183772793 22.18250579296654 9.89177540497921
Ag 7.95544146966538 3.86083767085052 13.99999615173717
Ag 9.92882982157714 3.82919011888338 11.95611659681872
Ag 11.97291202545360 3.77889468011508 13.99999341673004
Ag 14.00004857829979 3.78954152536477 11.97686964305004
Ag 16.02718139730775 3.77889304392812 13.99999696757987
Ag 18.07116235191722 3.82913696296083 11.95608144742188
Ag 20.04469377564024 3.86080672246539 13.99998482878912
Ag 3.86059483495059 7.95533444269124 13.99999710186402
Ag 5.88040672465200 5.88042885088980 14.00000502443414
Ag 5.84784533941900 7.88008455245134 11.95333470521442
Ag 7.88014975676208 5.84790127919424 11.95333010120057
Ag 9.93244948941724 7.89176151420140 11.98640401598586
Ag 11.97541155387591 5.85771270820529 11.97709855446614
Ag 14.00006681248403 7.89296223950857 11.95498834112242
Ag 16.02468860204887 5.85769155011023 11.97708958566579
Ag 18.06757915771858 7.89177980090657 11.98639040229760
Ag 20.11978182058815 5.84787419972481 11.95334184330262
Ag 22.11941411276877 5.88046265199512 13.99999958114153
Ag 22.15205778964083 7.88013615556394 11.95332991773401
Ag 24.13903155568256 7.95541945458037 14.00000575406847
Ag 3.82912785382714 9.92873892633072 11.95607971755930
Ag 3.77882588294926 11.97278347228833 13.99999257129483
Ag 5.85766588517566 11.97531261613475 11.97709108371346
Ag 7.89176558019335 9.93237826362450 11.98640356253318
Ag 9.92971881933270 11.96585448634962 11.95633593538440
Ag 11.96595178939198 9.92967186522433 11.95632530545167
Ag 14.00007130103329 11.97015643594311 11.95533048187133
Ag 16.03415669792691 9.92967066194051 11.95632901578774
Ag 18.07033043269815 11.96585512766718 11.95632411868962
Ag 20.10820072535189 9.93240350148275 11.98639770314746
Ag 22.14225386482856 11.97532451483099 11.97708417748847
Ag 24.17083138923112 9.92877930482391 11.95611001464024
Ag 24.22099065827285 11.97282088150641 13.99998767188137
Ag 3.78948945366886 13.99998203253835 11.97685157596989
Ag 3.77880167011661 16.02718278769392 13.99999603927244
Ag 5.85764128204265 16.02466374268275 11.97709922341241
Ag 7.89293779559218 13.99998224792882 11.95498804111742
Ag 9.92969744662132 16.03411572719082 11.95633745616366
Ag 11.97024509183844 13.99997865527151 11.95534990566060
Ag 14.00006797250791 16.02980625258640 11.95536304910378
Ag 16.02986487654798 13.99996855325827 11.95533565245158
Ag 18.07032984493368 16.03408250093992 11.95633143790529
Ag 20.10701499463413 13.99996711039877 11.95499441209497
Ag 22.14227447299895 16.02461775734257 11.97708692592704
Ag 24.21039666456923 13.99996626154663 11.97687107853458
Ag 24.22102072836039 16.02710417792528 13.99999211835873
Ag 3.82909203323775 18.07124103616447 11.95607897439977
Ag 3.86056763246075 20.04473024243619 13.99999465396385
Ag 5.84773177080907 20.11996743516514 11.95331572643669
Ag 7.89169208056256 18.06764911501155 11.98641215923252
Ag 9.93237032677219 20.10831176677909 11.98640995804922
Ag 11.96591986284018 18.07033106305208 11.95634372622392
Ag 14.00003890398765 20.10707369937484 11.95499652545410
Ag 16.03416492838986 18.07031478029342 11.95634505198822
Ag 18.06760706166556 20.10823601981901 11.98639564401677
Ag 20.10821231720781 18.06754706554246 11.98640999456460
Ag 22.15204869491089 20.11979976540032 11.95333077134673
Ag 24.17085095500878 18.07117401344572 11.95610620842911
Ag 24.13902660267433 20.04452791238073 14.00000046257822
Ag 5.88026674416150 22.11969601386195 13.99998743168128
Ag 7.88002973221859 22.15222464997146 11.95330710464997
Ag 7.95529992885914 24.13939475259475 13.99999413451629
Ag 9.92875479886069 24.17090255248410 11.95608102353963
Ag 11.97534977083408 22.14238080874578 11.97708540428932
Ag 11.97284148381331 24.22119067336297 13.99998189879234
Ag 14.00003779213973 24.21053298330260 11.97684041770380
Ag 16.02469988162589 22.14233322030769 11.97708868250878
Ag 16.02721774069139 24.22117242549199 13.99998275865416
Ag 18.07123843329875 24.17086335687393 11.95606241989893
Ag 20.11987211418155 22.15212897783071 11.95332368406677
Ag 20.04458748793074 24.13932226234123 13.99999684353864
Ag 22.11948526922604 22.11956190976888 13.99999409556691
Ag 9.92883288504378 3.82918767522220 16.04387801282196
Ag 11.97395265520773 3.81928259859176 18.07327821493102
Ag 14.00004417971573 3.78952410051266 16.02312729687016
Ag 16.02609883268086 3.81926862813532 18.07329466256943
Ag 18.07119815077043 3.82917640285027 16.04390034613265
Ag 5.84784350675168 7.88009137053123 16.04666126645914
Ag 7.88015597886369 5.84790483361434 16.04666450117219
Ag 7.86430547040235 7.86429226212346 18.10193327840341
Ag 9.89715636326224 5.81751003142320 18.10817086080923
Ag 9.93245124813889 7.89175476766167 16.01357777582864
Ag 11.97540701722520 5.85769571271445 16.02289099069943
Ag 14.00006379327306 7.89295687152768 16.04499165091339
Ag 16.02467886842068 5.85769977144481 16.02290456847597
Ag 18.10288466109396 5.81748691990151 18.10818876141543
Ag 18.06758864175916 7.89175809040450 16.01360409388541
Ag 20.11981417046170 5.84790266792434 16.04665809293319
Ag 20.13569254335714 7.86427933436423 18.10196977549575
Ag 22.15201873373362 7.88017470418102 16.04665394804139
Ag 3.82912644728029 9.92874278478002 16.04391293396643
Ag 3.81926530125310 11.97388807123007 18.07332380855329
Ag 5.81748179819282 9.89708942590170 18.10820081401118
Ag 5.85765314109094 11.97530087410360 16.02288755335386
Ag 7.89175712347741 9.93237745241518 16.01357819898043
Ag 9.92971254157545 11.96585370485929 16.04363878043818
Ag 11.96595663826104 9.92966292272102 16.04364589752042
Ag 14.00007745332293 11.97015685743632 16.04466629344886
Ag 16.03416417917899 9.92965681437629 16.04366425200834
Ag 18.07033982174388 11.96585904596714 16.04368911584545
Ag 20.10819918269351 9.93241437218012 16.01360347113537
Ag 22.18246094949500 9.89711948366372 18.10817397731839
Ag 22.14226687760108 11.97531787833896 16.02291336359985
Ag 24.17082698991610 9.92878263636127 16.04387836954588
Ag 24.18067863213844 11.97388970476550 18.07328190332670
Ag 3.78946222038569 13.99998054837100 16.02313382670109
Ag 3.81924563582784 16.02607848004833 18.07333432570176
Ag 5.85762200338667 16.02467165288431 16.02289411616722
Ag 7.89293982474284 13.99997982911609 16.04499149363665
Ag 9.92968859930696 16.03411453301462 16.04366348041887
Ag 11.97025187690036 13.99997298348849 16.04464632265897
Ag 14.00007163177828 16.02980401441755 16.04467612209278
Ag 16.02986430329199 13.99996775960029 16.04470331092992
Ag 18.07034698100152 16.03408536650860 16.04370998071883
Ag 20.10702986727028 13.99995754720717 16.04503407266175
Ag 22.14227170403836 16.02462030994401 16.02291927799555
Ag 24.21039946224473 13.99997218910288 16.02311374571810
Ag 24.18068261986922 16.02606141057919 18.07327667812856
Ag 3.82908352431179 18.07123772480191 16.04392180562866
Ag 5.81742585859195 18.10291214914914 18.10819598808100
Ag 5.84779212676350 20.11993054331075 16.04661927543922
Ag 7.89169309561326 18.06764039230491 16.01359910011791
Ag 7.86423188038644 20.13576131398304 18.10194765867889
Ag 9.93236358219688 20.10832402376766 16.01358867036521
Ag 11.96591706656852 18.07034661177104 16.04367080190914
Ag 14.00004046519444 20.10708564494958 16.04501702502976
Ag 16.03417241508747 18.07032577343542 16.04369043255189
Ag 18.06762195733841 20.10825366438914 16.01363421957201
Ag 20.10822606793840 18.06756425083920 16.01362639472135
Ag 20.13573111040272 20.13572204255775 18.10198462358976
Ag 22.18248936065888 18.10284484188118 18.10817906236344
Ag 22.15206946072353 20.11981345653966 16.04667895546078
Ag 24.17086043228804 18.07116829740062 16.04389045140371
Ag 7.88003371214472 22.15223615841517 16.04668375059903
Ag 9.89709884133644 22.18256993744616 18.10820587057153
Ag 9.92875904649143 24.17089883657242 16.04389951175413
Ag 11.97534057862902 22.14238194212001 16.02288844768464
Ag 11.97392061164282 24.18075301475312 18.07332093625686
Ag 14.00003699393791 24.21053640231376 16.02312907277120
Ag 16.02468929632268 22.14235072916306 16.02292323444347
Ag 16.02610478179038 24.18073884690035 18.07332925917295
Ag 18.10291973752279 22.18254015872167 18.10822324854433
Ag 18.07123756348046 24.17087386511517 16.04392306871727
Ag 20.11988726092856 22.15214609295775 16.04668010978304
Ag 14.00002420845130 3.87056073709532 20.09339201993010
Ag 9.90723713876145 7.86988168463262 20.11394351265252
Ag 11.93955379451794 5.83975760226325 20.11931177495348
Ag 11.93283931816828 7.85308039004339 22.17037681731152
Ag 14.00001617173522 5.85127408709700 22.14644728792333
Ag 14.00002283328137 7.88015096903520 20.05802893029167
Ag 16.06049707947042 5.83972387322746 20.11932588752469
Ag 16.06717348527319 7.85307604067726 22.17033423998406
Ag 18.09282515240167 7.86983474417590 20.11398232553862
Ag 5.83972406308044 11.93953334759501 20.11936969397703
Ag 7.86989649052851 9.90718533607139 20.11396045773278
Ag 7.85310144102276 11.93284120995356 22.17036906014276
Ag 9.89395810432010 9.89392877876128 22.17451843823830
Ag 9.92226461554785 11.96025296463554 20.08172619112552
Ag 11.96029938987364 9.92223533238444 20.08170937478397
Ag 14.00005100056788 11.95502352234353 20.11179384239308
Ag 16.03976961902647 9.92222209245537 20.08175099158733
Ag 18.10608001305784 9.89389760741023 22.17455923586748
Ag 18.07776995456219 11.96023038169475 20.08178733067522
Ag 20.13014283389179 9.90716657670646 20.11399997668984
Ag 20.14690072939596 11.93281477547972 22.17038819426787
Ag 22.16026819893347 11.93953910092259 20.11934514974044
Ag 3.87047368618721 13.99997311190298 20.09343420552260
Ag 5.85118258660693 13.99998668866724 22.14652147881057
Ag 5.83969537547605 16.06044532997305 20.11938366437617
Ag 7.88013449479833 13.99998138945882 20.05804636947524
Ag 7.85310240557008 16.06713928346738 22.17036993817720
Ag 11.93283844848480 7.85309587118446 5.82961752305714
Ag 9.92225860007818 16.03970430819565 20.08170753777018
Ag 11.95508252020057 13.99996992415483 20.11179300093906
Ag 14.00005298224222 16.04494002914378 20.11179919901608
Ag 16.04499994428138 13.99997367603201 20.11182143369863
Ag 18.07777646746438 16.03972575968042 20.08179859807756
Ag 20.11982249758132 13.99997403724823 20.05806863571502
Ag 20.14690641993505 16.06714400705612 22.17040284013131
Ag 22.14872888912223 13.99997699327038 22.14641459426342
Ag 22.16026973264537 16.06041203955144 20.11934163141592
Ag 24.12958506821457 13.99997220832848 20.09333015896525
Ag 7.86983398979184 18.09281964353935 20.11397641960674
Ag 9.89397992129328 18.10601745733165 22.17444236814444
Ag 9.90717419620333 20.13017107143502 20.11399624983677
Ag 11.96030441318572 18.07775843604524 20.08172139720070
Ag 11.93285213612630 20.14691623614016 22.17038641551339
Ag 14.00002554179114 20.11987649935629 20.05807303771218
Ag 16.03977500321593 18.07776634347141 20.08178718469317
Ag 16.06717609786847 20.14691308009662 22.17039930077011
Ag 18.10608741841240 18.10606668250972 22.17458399923811
Ag 18.09284813351320 20.13015280774825 20.11402610600589
Ag 20.13015870245597 18.09279673587757 20.11401726422572
Ag 11.93953788731945 22.16030337276398 20.11939974146212
Ag 14.00002635470241 22.14881066327269 22.14651183383996
Ag 14.00002739404842 24.12952689332943 20.09343891101744
Ag 16.06048194162675 22.16028762844744 20.11937809834147
Ag 14.00001870890596 7.92401414625008 24.12262855198702
Ag 9.95022322919758 11.98126177179004 24.13997308188944
Ag 11.98129350157331 9.95017609907693 24.13997355850433
Ag 14.00002928303089 11.97920376003477 24.12105594022826
Ag 16.01873930891556 9.95013888898479 24.13998661221911
Ag 18.04980775557201 11.98122934131897 24.14003725560839
Ag 7.92403987007900 13.99998511652663 24.12267772536441
Ag 9.95022517063811 16.01871827762452 24.13997751408798
Ag 11.97928562947927 13.99997511514151 24.12105136265657
Ag 14.00002985533582 16.02074421202812 24.12109093271142
Ag 16.02077846679560 13.99997576109697 24.12110113628381
Ag 18.04981211163576 16.01872312302032 24.14006329203344
Ag 20.07593708296826 13.99997294595134 24.12269246567609
Ag 11.98128200917939 18.04979348850502 24.13995812895626
Ag 14.00001058519727 20.07597839926301 24.12266350711985
Ag 16.01873921995627 18.04981622743930 24.14002146840248